Version 4
SHEET 1 1400 2068
WIRE -80 64 -224 64
WIRE 96 64 -80 64
WIRE 128 64 96 64
WIRE 480 64 480 -144
WIRE 480 64 384 64
WIRE 656 64 480 64
WIRE 800 64 656 64
WIRE 832 64 800 64
WIRE 1184 64 1184 -144
WIRE 1184 64 1088 64
WIRE 1328 64 1184 64
WIRE 480 144 480 64
WIRE 1184 144 1184 64
WIRE 1328 144 1328 64
WIRE -224 160 -224 64
WIRE -80 160 -80 64
WIRE 96 160 96 64
WIRE 128 160 96 160
WIRE 656 160 656 64
WIRE 800 160 800 64
WIRE 832 160 800 160
WIRE 480 256 480 224
WIRE 480 256 384 256
WIRE 1184 256 1184 224
WIRE 1184 256 1088 256
WIRE 480 304 480 256
WIRE 1184 304 1184 256
WIRE -224 368 -224 240
WIRE -80 368 -80 224
WIRE 256 368 256 320
WIRE 656 368 656 224
WIRE 960 368 960 320
WIRE 1328 368 1328 208
WIRE 480 416 480 384
WIRE 1184 416 1184 384
WIRE -64 1008 -208 1008
WIRE 112 1008 -64 1008
WIRE 144 1008 112 1008
WIRE 496 1008 496 800
WIRE 496 1008 400 1008
WIRE 672 1008 496 1008
WIRE 816 1008 672 1008
WIRE 848 1008 816 1008
WIRE 1200 1008 1200 800
WIRE 1200 1008 1104 1008
WIRE 1344 1008 1200 1008
WIRE 496 1088 496 1008
WIRE 1200 1088 1200 1008
WIRE 1344 1088 1344 1008
WIRE -208 1104 -208 1008
WIRE -64 1104 -64 1008
WIRE 672 1104 672 1008
WIRE 112 1200 112 1008
WIRE 144 1200 112 1200
WIRE 496 1200 496 1168
WIRE 496 1200 400 1200
WIRE 816 1200 816 1008
WIRE 848 1200 816 1200
WIRE 1200 1200 1200 1168
WIRE 1200 1200 1104 1200
WIRE 496 1248 496 1200
WIRE 1200 1248 1200 1200
WIRE -208 1312 -208 1184
WIRE -64 1312 -64 1168
WIRE 272 1312 272 1264
WIRE 672 1312 672 1168
WIRE 976 1312 976 1264
WIRE 1344 1312 1344 1152
WIRE 496 1360 496 1328
WIRE 1200 1360 1200 1328
WIRE -64 1696 -208 1696
WIRE 112 1696 -64 1696
WIRE 144 1696 112 1696
WIRE 496 1696 496 1488
WIRE 496 1696 400 1696
WIRE 496 1776 496 1696
WIRE -208 1792 -208 1696
WIRE -64 1792 -64 1696
WIRE 112 1888 112 1696
WIRE 144 1888 112 1888
WIRE 496 1888 496 1856
WIRE 496 1888 400 1888
WIRE 496 1936 496 1888
WIRE -208 2000 -208 1872
WIRE -64 2000 -64 1856
WIRE 272 2000 272 1952
WIRE 496 2048 496 2016
FLAG 256 368 0
FLAG 480 416 0
FLAG -224 368 0
FLAG 960 368 0
FLAG 1184 416 0
FLAG -80 368 0
FLAG 656 368 0
FLAG 1328 368 0
FLAG 272 1312 0
FLAG 496 1360 0
FLAG -208 1312 0
FLAG 976 1312 0
FLAG 1200 1360 0
FLAG -64 1312 0
FLAG 672 1312 0
FLAG 1344 1312 0
FLAG 272 2000 0
FLAG 496 2048 0
FLAG -208 2000 0
FLAG -64 2000 0
SYMBOL PowerProducts\\ADP7142 256 160 R0
SYMATTR InstName U1
SYMBOL res 464 128 R0
SYMATTR InstName R1
SYMATTR Value 620k
SYMBOL res 464 288 R0
SYMATTR InstName R2
SYMATTR Value 44.3k
SYMBOL voltage -224 144 R0
WINDOW 123 0 0 Left 0
WINDOW 39 0 0 Left 0
SYMATTR InstName V1
SYMATTR Value 20
SYMBOL PowerProducts\\ADP7142 960 160 R0
SYMATTR InstName U2
SYMBOL res 1168 128 R0
SYMATTR InstName R3
SYMATTR Value 620k
SYMBOL res 1168 288 R0
SYMATTR InstName R4
SYMATTR Value 49.9k
SYMBOL cap -96 160 R0
SYMATTR InstName C1
SYMATTR Value 10µ
SYMATTR SpiceLine V=50 Irms=0 Rser=0.003 Lser=1.2n mfg="Würth Elektronik" pn="885012214005 WCAP-CSGP 2220" type="X7R"
SYMBOL cap 640 160 R0
SYMATTR InstName C2
SYMATTR Value 10µ
SYMATTR SpiceLine V=50 Irms=0 Rser=0.003 Lser=1.2n mfg="Würth Elektronik" pn="885012214005 WCAP-CSGP 2220" type="X7R"
SYMBOL cap 1312 144 R0
SYMATTR InstName C3
SYMATTR Value 10µ
SYMATTR SpiceLine V=50 Irms=0 Rser=0.003 Lser=1.2n mfg="Würth Elektronik" pn="885012214005 WCAP-CSGP 2220" type="X7R"
SYMBOL res 480 1072 R0
SYMATTR InstName R5
SYMATTR Value 620k
SYMBOL res 480 1232 R0
SYMATTR InstName R6
SYMATTR Value 45.2k
SYMBOL voltage -208 1088 R0
WINDOW 123 0 0 Left 0
WINDOW 39 0 0 Left 0
SYMATTR InstName V2
SYMATTR Value -20
SYMBOL res 1184 1072 R0
SYMATTR InstName R7
SYMATTR Value 620k
SYMBOL res 1184 1232 R0
SYMATTR InstName R8
SYMATTR Value 51.1k
SYMBOL cap -80 1104 R0
SYMATTR InstName C4
SYMATTR Value 10µ
SYMATTR SpiceLine V=50 Irms=0 Rser=0.003 Lser=1.2n mfg="Würth Elektronik" pn="885012214005 WCAP-CSGP 2220" type="X7R"
SYMBOL cap 656 1104 R0
SYMATTR InstName C5
SYMATTR Value 10µ
SYMATTR SpiceLine V=50 Irms=0 Rser=0.003 Lser=1.2n mfg="Würth Elektronik" pn="885012214005 WCAP-CSGP 2220" type="X7R"
SYMBOL cap 1328 1088 R0
SYMATTR InstName C6
SYMATTR Value 10µ
SYMATTR SpiceLine V=50 Irms=0 Rser=0.003 Lser=1.2n mfg="Würth Elektronik" pn="885012214005 WCAP-CSGP 2220" type="X7R"
SYMBOL PowerProducts\\ADP7182 272 1104 R0
SYMATTR InstName U5
SYMBOL PowerProducts\\ADP7182 976 1104 R0
SYMATTR InstName U6
SYMBOL res 480 1760 R0
SYMATTR InstName R9
SYMATTR Value 620k
SYMBOL res 480 1920 R0
SYMATTR InstName R10
SYMATTR Value 59k
SYMBOL voltage -208 1776 R0
WINDOW 123 0 0 Left 0
WINDOW 39 0 0 Left 0
SYMATTR InstName V3
SYMATTR Value -20
SYMBOL cap -80 1792 R0
SYMATTR InstName C7
SYMATTR Value 10µ
SYMATTR SpiceLine V=50 Irms=0 Rser=0.003 Lser=1.2n mfg="Würth Elektronik" pn="885012214005 WCAP-CSGP 2220" type="X7R"
SYMBOL PowerProducts\\ADP7182 272 1792 R0
SYMATTR InstName U3
TEXT -256 440 Left 2 !.tran 1
