Version 4
SHEET 1 1920 680
WIRE 448 -784 448 -848
WIRE 1008 -752 832 -752
WIRE 832 -656 832 -752
WIRE 864 -656 832 -656
WIRE 1008 -640 1008 -752
WIRE 1008 -640 928 -640
WIRE 1056 -640 1056 -880
WIRE 1056 -640 1008 -640
WIRE 1088 -640 1056 -640
WIRE 1200 -640 1168 -640
WIRE 1232 -640 1200 -640
WIRE 1360 -640 1312 -640
WIRE 1408 -640 1408 -880
WIRE 1408 -640 1360 -640
WIRE 1456 -640 1408 -640
WIRE 1568 -640 1536 -640
WIRE 1680 -640 1648 -640
WIRE 1712 -640 1680 -640
WIRE 1840 -640 1840 -880
WIRE 1840 -640 1792 -640
WIRE 448 -624 448 -704
WIRE 624 -624 448 -624
WIRE 736 -624 704 -624
WIRE 864 -624 736 -624
WIRE 736 -544 736 -624
WIRE 1200 -512 1200 -640
WIRE 1232 -512 1200 -512
WIRE 1680 -512 1680 -640
WIRE 1712 -512 1680 -512
WIRE 1360 -496 1360 -640
WIRE 1360 -496 1296 -496
WIRE 1840 -496 1840 -640
WIRE 1840 -496 1776 -496
WIRE 448 -480 448 -624
WIRE 544 -480 544 -512
WIRE 1232 -480 1200 -480
WIRE 1712 -480 1680 -480
WIRE 736 -448 736 -480
WIRE 544 -288 544 -336
WIRE 448 -256 448 -336
WIRE -560 144 -560 128
WIRE -416 144 -416 128
WIRE -272 144 -272 128
WIRE 1008 160 832 160
WIRE 480 176 480 112
WIRE 832 256 832 160
WIRE 864 256 832 256
WIRE 1008 272 1008 160
WIRE 1008 272 928 272
WIRE 1056 272 1056 32
WIRE 1056 272 1008 272
WIRE 1088 272 1056 272
WIRE 1200 272 1168 272
WIRE 1232 272 1200 272
WIRE 1360 272 1312 272
WIRE 1408 272 1408 32
WIRE 1408 272 1360 272
WIRE 1456 272 1408 272
WIRE 1568 272 1536 272
WIRE 1680 272 1648 272
WIRE 1712 272 1680 272
WIRE 1840 272 1840 32
WIRE 1840 272 1792 272
WIRE 480 288 480 256
WIRE 576 288 480 288
WIRE 624 288 576 288
WIRE 736 288 704 288
WIRE 864 288 736 288
WIRE 400 336 400 304
WIRE 480 336 480 288
WIRE 576 336 576 288
WIRE 736 368 736 288
WIRE 1200 400 1200 272
WIRE 1232 400 1200 400
WIRE 1680 400 1680 272
WIRE 1712 400 1680 400
WIRE 1360 416 1360 272
WIRE 1360 416 1296 416
WIRE 1840 416 1840 272
WIRE 1840 416 1776 416
WIRE 1232 432 1200 432
WIRE 1712 432 1680 432
WIRE 736 464 736 432
WIRE 480 544 480 512
WIRE 576 544 576 512
WIRE 576 544 480 544
WIRE 400 560 400 512
WIRE 480 576 480 544
FLAG -560 144 0
FLAG -416 144 0
FLAG -272 144 0
FLAG -560 48 VCC
FLAG -416 48 VEE
FLAG -272 48 VDD
FLAG 544 -512 VCC
FLAG 544 -288 VEE
FLAG 448 -256 0
FLAG 448 -848 VCC
FLAG 736 -448 0
FLAG 896 -608 VEE
FLAG 896 -672 VCC
FLAG 400 304 VCC
FLAG 400 560 VEE
FLAG 480 112 VCC
FLAG 480 576 0
FLAG 736 464 0
FLAG 1264 -464 VEE
FLAG 1264 -528 VCC
FLAG 1200 -480 0
FLAG 1744 -464 VEE
FLAG 1744 -528 VCC
FLAG 1680 -480 0
FLAG 1056 -880 P7VA
FLAG 1408 -880 N7VA
FLAG 1840 -880 P10VA
FLAG 896 304 VEE
FLAG 896 240 VCC
FLAG 1264 448 VEE
FLAG 1264 384 VCC
FLAG 1200 432 0
FLAG 1744 448 VEE
FLAG 1744 384 VCC
FLAG 1680 432 0
FLAG 1056 32 P7VB
FLAG 1408 32 N7VB
FLAG 1840 32 P10VB
SYMBOL voltage -560 32 R0
WINDOW 123 0 0 Left 0
WINDOW 39 0 0 Left 0
SYMATTR InstName V1
SYMATTR Value 18
SYMBOL voltage -416 32 R0
WINDOW 123 0 0 Left 0
WINDOW 39 0 0 Left 0
SYMATTR InstName V2
SYMATTR Value -18
SYMBOL voltage -272 32 R0
WINDOW 123 0 0 Left 0
WINDOW 39 0 0 Left 0
SYMATTR InstName V3
SYMATTR Value -14
SYMBOL References\\ADR1399H 432 -416 R0
SYMATTR InstName U3
SYMBOL res 432 -800 R0
SYMATTR InstName R3
SYMATTR Value 2k7
SYMBOL res 720 -640 R90
WINDOW 0 0 56 VBottom 2
WINDOW 3 32 56 VTop 2
SYMATTR InstName R4
SYMATTR Value 62
SYMBOL cap 720 -544 R0
SYMATTR InstName C2
SYMATTR Value 0.1µ
SYMATTR SpiceLine V=100 Irms=835m Rser=0.0936732 Lser=0 mfg="KEMET" pn="C1812C104K1RAC" type="X7R"
SYMBOL OpAmps\\OP27 896 -704 R0
SYMATTR InstName U4
SYMBOL References\\ADR1399E 464 416 R0
SYMATTR InstName U1
SYMBOL res 464 160 R0
SYMATTR InstName R1
SYMATTR Value 2k7
SYMBOL res 720 272 R90
WINDOW 0 0 56 VBottom 2
WINDOW 3 32 56 VTop 2
SYMATTR InstName R2
SYMATTR Value 62
SYMBOL cap 720 368 R0
SYMATTR InstName C1
SYMATTR Value 0.1µ
SYMATTR SpiceLine V=100 Irms=835m Rser=0.0936732 Lser=0 mfg="KEMET" pn="C1812C104K1RAC" type="X7R"
SYMBOL OpAmps\\OP27 1264 -560 R0
SYMATTR InstName U5
SYMBOL res 1328 -656 R90
WINDOW 0 0 56 VBottom 2
WINDOW 3 32 56 VTop 2
SYMATTR InstName R5
SYMATTR Value 5k
SYMBOL res 1184 -656 R90
WINDOW 0 0 56 VBottom 2
WINDOW 3 32 56 VTop 2
SYMATTR InstName R6
SYMATTR Value 5k
SYMBOL OpAmps\\OP27 1744 -560 R0
SYMATTR InstName U6
SYMBOL res 1808 -656 R90
WINDOW 0 0 56 VBottom 2
WINDOW 3 32 56 VTop 2
SYMATTR InstName R7
SYMATTR Value 10k
SYMBOL res 1664 -656 R90
WINDOW 0 0 56 VBottom 2
WINDOW 3 32 56 VTop 2
SYMATTR InstName R8
SYMATTR Value 6k98
SYMBOL res 1552 -656 R90
WINDOW 0 0 56 VBottom 2
WINDOW 3 32 56 VTop 2
SYMATTR InstName R9
SYMATTR Value 69.8
SYMBOL OpAmps\\OP27 896 208 R0
SYMATTR InstName U2
SYMBOL OpAmps\\OP27 1264 352 R0
SYMATTR InstName U7
SYMBOL res 1328 256 R90
WINDOW 0 0 56 VBottom 2
WINDOW 3 32 56 VTop 2
SYMATTR InstName R10
SYMATTR Value 5k
SYMBOL res 1184 256 R90
WINDOW 0 0 56 VBottom 2
WINDOW 3 32 56 VTop 2
SYMATTR InstName R11
SYMATTR Value 5k
SYMBOL OpAmps\\OP27 1744 352 R0
SYMATTR InstName U8
SYMBOL res 1808 256 R90
WINDOW 0 0 56 VBottom 2
WINDOW 3 32 56 VTop 2
SYMATTR InstName R12
SYMATTR Value 10k
SYMBOL res 1664 256 R90
WINDOW 0 0 56 VBottom 2
WINDOW 3 32 56 VTop 2
SYMATTR InstName R13
SYMATTR Value 6k98
SYMBOL res 1552 256 R90
WINDOW 0 0 56 VBottom 2
WINDOW 3 32 56 VTop 2
SYMATTR InstName R14
SYMATTR Value 69.8
TEXT -592 632 Left 2 !.tran 40
